@<TRIPOS>MOLECULE
*****
 72 84 0 0 0
SMALL
GASTEIGER

@<TRIPOS>ATOM
      1 C          -3.1980   -1.6300    0.0000 C.3     1  UNL1        0.1358
      2 C           1.6300   -3.1980    0.0000 C.3     1  UNL1        0.1358
      3 C           3.1980    1.6300    0.0000 C.3     1  UNL1        0.1358
      4 C          -1.6300    3.1980    0.0000 C.3     1  UNL1        0.1358
      5 C          -3.5877   -0.1004    0.0000 C.3     1  UNL1        0.1358
      6 C           0.1004   -3.5877    0.0000 C.3     1  UNL1        0.1358
      7 C           3.5877    0.1004    0.0000 C.3     1  UNL1        0.1358
      8 C          -0.1004    3.5877    0.0000 C.3     1  UNL1        0.1358
      9 N          -3.0287    0.3848   -1.2402 N.am    1  UNL1       -0.2471
     10 N          -0.3848   -3.0287   -1.2402 N.am    1  UNL1       -0.2471
     11 N           3.0287   -0.3848   -1.2402 N.am    1  UNL1       -0.2471
     12 N           0.3848    3.0287    1.2402 N.am    1  UNL1       -0.2471
     13 N          -3.0287    0.3848    1.2402 N.am    1  UNL1       -0.2471
     14 N          -0.3848   -3.0287    1.2402 N.am    1  UNL1       -0.2471
     15 N           3.0287   -0.3848    1.2402 N.am    1  UNL1       -0.2471
     16 N           0.3848    3.0287   -1.2402 N.am    1  UNL1       -0.2471
     17 N          -2.4754   -1.7889   -1.2408 N.am    1  UNL1       -0.2471
     18 N           1.7889   -2.4754   -1.2408 N.am    1  UNL1       -0.2471
     19 N           2.4754    1.7889   -1.2408 N.am    1  UNL1       -0.2471
     20 N          -1.7889    2.4754    1.2408 N.am    1  UNL1       -0.2471
     21 N          -2.4754   -1.7889    1.2408 N.am    1  UNL1       -0.2471
     22 N           1.7889   -2.4754    1.2408 N.am    1  UNL1       -0.2471
     23 N           2.4754    1.7889    1.2408 N.am    1  UNL1       -0.2471
     24 N          -1.7889    2.4754   -1.2408 N.am    1  UNL1       -0.2471
     25 C          -2.4789   -0.6321   -2.0215 C.2     1  UNL1        0.3102
     26 C           0.6321   -2.4789   -2.0215 C.2     1  UNL1        0.3102
     27 C           2.4789    0.6321   -2.0215 C.2     1  UNL1        0.3102
     28 C          -0.6321    2.4789    2.0215 C.2     1  UNL1        0.3102
     29 C          -2.4789   -0.6321    2.0215 C.2     1  UNL1        0.3102
     30 C           0.6321   -2.4789    2.0215 C.2     1  UNL1        0.3102
     31 C           2.4789    0.6321    2.0215 C.2     1  UNL1        0.3102
     32 C          -0.6321    2.4789   -2.0215 C.2     1  UNL1        0.3102
     33 O          -2.1141   -0.5385   -3.1693 O.2     1  UNL1       -0.2522
     34 O           0.5385   -2.1141   -3.1693 O.2     1  UNL1       -0.2522
     35 O           2.1141    0.5385   -3.1693 O.2     1  UNL1       -0.2522
     36 O          -0.5385    2.1141    3.1693 O.2     1  UNL1       -0.2522
     37 O          -2.1141   -0.5385    3.1693 O.2     1  UNL1       -0.2522
     38 O           0.5385   -2.1141    3.1693 O.2     1  UNL1       -0.2522
     39 O           2.1141    0.5385    3.1693 O.2     1  UNL1       -0.2522
     40 O          -0.5385    2.1141   -3.1693 O.2     1  UNL1       -0.2522
     41 C          -2.9748    1.7656   -1.6720 C.3     1  UNL1        0.0902
     42 C          -1.7656   -2.9748   -1.6720 C.3     1  UNL1        0.0902
     43 C           2.9748   -1.7656   -1.6720 C.3     1  UNL1        0.0902
     44 C           1.7656    2.9748    1.6720 C.3     1  UNL1        0.0902
     45 C          -2.9748    1.7656    1.6720 C.3     1  UNL1        0.0902
     46 C          -1.7656   -2.9748    1.6720 C.3     1  UNL1        0.0902
     47 C           2.9748   -1.7656    1.6720 C.3     1  UNL1        0.0902
     48 C           1.7656    2.9748   -1.6720 C.3     1  UNL1        0.0902
     49 H          -3.8664    2.2946   -1.3158 H       1  UNL1        0.0676
     50 H          -2.2946   -3.8664   -1.3158 H       1  UNL1        0.0676
     51 H           3.8664   -2.2946   -1.3158 H       1  UNL1        0.0676
     52 H           2.2946    3.8664    1.3158 H       1  UNL1        0.0676
     53 H          -3.8664    2.2946    1.3158 H       1  UNL1        0.0676
     54 H          -2.2946   -3.8664    1.3158 H       1  UNL1        0.0676
     55 H           3.8664   -2.2946    1.3158 H       1  UNL1        0.0676
     56 H           2.2946    3.8664   -1.3158 H       1  UNL1        0.0676
     57 H          -2.9590    1.7552   -2.7653 H       1  UNL1        0.0676
     58 H          -1.7552   -2.9590   -2.7653 H       1  UNL1        0.0676
     59 H           2.9590   -1.7552   -2.7653 H       1  UNL1        0.0676
     60 H           1.7552    2.9590    2.7653 H       1  UNL1        0.0676
     61 H          -2.9590    1.7552    2.7653 H       1  UNL1        0.0676
     62 H          -1.7552   -2.9590    2.7653 H       1  UNL1        0.0676
     63 H           2.9590   -1.7552    2.7653 H       1  UNL1        0.0676
     64 H           1.7552    2.9590   -2.7653 H       1  UNL1        0.0676
     65 H          -4.6779    0.0521    0.0000 H       1  UNL1        0.0749
     66 H          -0.0521   -4.6779    0.0000 H       1  UNL1        0.0749
     67 H           4.6779   -0.0521    0.0000 H       1  UNL1        0.0749
     68 H           0.0521    4.6779    0.0000 H       1  UNL1        0.0749
     69 H          -4.0827   -2.2851    0.0000 H       1  UNL1        0.0749
     70 H           2.2851   -4.0827    0.0000 H       1  UNL1        0.0749
     71 H           4.0827    2.2851    0.0000 H       1  UNL1        0.0749
     72 H          -2.2851    4.0827    0.0000 H       1  UNL1        0.0749
@<TRIPOS>BOND
     1    33    25    2
     2    35    27    2
     3    34    26    2
     4    40    32    2
     5    57    41    1
     6    58    42    1
     7    59    43    1
     8    64    48    1
     9    32    24   am
    10    32    16   am
    11    26    18   am
    12    26    10   am
    13    27    19   am
    14    27    11   am
    15    25    17   am
    16    25     9   am
    17    43    51    1
    18    43    18    1
    19    43    11    1
    20    42    50    1
    21    42    17    1
    22    42    10    1
    23    41    49    1
    24    41    24    1
    25    41     9    1
    26    48    56    1
    27    48    19    1
    28    48    16    1
    29    19     3    1
    30    18     2    1
    31    17     1    1
    32    24     4    1
    33    16     8    1
    34     9     5    1
    35    11     7    1
    36    10     6    1
    37    72     4    1
    38     6     2    1
    39     6    66    1
    40     6    14    1
    41    71     3    1
    42    70     2    1
    43     2    22    1
    44     3     7    1
    45     3    23    1
    46     4     8    1
    47     4    20    1
    48    69     1    1
    49    68     8    1
    50    67     7    1
    51     5    65    1
    52     5     1    1
    53     5    13    1
    54     7    15    1
    55     8    12    1
    56     1    21    1
    57    15    47    1
    58    15    31   am
    59    14    46    1
    60    14    30   am
    61    13    45    1
    62    13    29   am
    63    12    44    1
    64    12    28   am
    65    22    47    1
    66    22    30   am
    67    23    44    1
    68    23    31   am
    69    20    45    1
    70    20    28   am
    71    21    46    1
    72    21    29   am
    73    52    44    1
    74    54    46    1
    75    55    47    1
    76    53    45    1
    77    44    60    1
    78    47    63    1
    79    46    62    1
    80    45    61    1
    81    30    38    2
    82    29    37    2
    83    28    36    2
    84    31    39    2
